! Users should add all user specific namelist changes below in the form of
! namelist_var = new_namelist_value

ncdata = '/home/cesmdata/camden/kess_data.cam.h6.ne5.nc'
use_topo_file = .false.

history_no_defaults: True
! History configuration
diag_file;h0: amwg_hist_config
remove_avg_fields;h0 TAUTMSX, TAUTMSY
output_levels;h0: IPCC_PRESSURE_LEVELS
add_pressure_levels;h0: 925hPa, 850, 500, 320


output_levels;h3: MODEL_LEVELS
add_inst_fields;h3: T, U, V
output_frequency;h3: 2*nsteps
