! Set fixed orbital parameters
orb_mode='fixed_parameters'
orb_eccen = 0.
orb_obliq = 0.
orb_mvelp = 0.
