! Set fixed orbital parameters to match CAM snapshot
orb_mode='fixed_parameters'
orb_eccen = 0.
orb_obliq = 0.
orb_mvelp = 0.
